goiania_leste_dss/TR4/CTMT_5007258.dss
! ==============================================================================
! ALIMENTADOR CTMT_5007258 - GOIANIA LESTE-22
! Subestacao: Trafo TR4 (GOL-S-TRF-TR4) | Barra MT: 6440 -> PAC_INI: 93360675007258
! ==============================================================================

! 1. Disjuntor de Saida MT do Alimentador
new line.DJ_5007258 phases=3 bus1=6440 bus2=93360675007258 switch=y r1=1e-4 x1=1e-4 length=0.001 units=km

! 2. Linhas de Media Tensao (MT)
new line.52890073 phases=3 bus1=80553445007258.1.2.3 bus2=80553375007258.1.2.3 r1=0.975 x1=0.47 length=0.032027 units=km normamps=152.0
new line.52890074 phases=3 bus1=80553375007258.1.2.3 bus2=80553575007258.1.2.3 r1=0.975 x1=0.47 length=0.008244 units=km normamps=152.0
new line.52890087 phases=3 bus1=80551425007258.1.2.3 bus2=80551405007258.1.2.3 r1=0.975 x1=0.47 length=0.008858 units=km normamps=152.0
new line.52890088 phases=3 bus1=80553355007258.1.2.3 bus2=80553375007258.1.2.3 r1=0.975 x1=0.47 length=0.009427 units=km normamps=152.0
new line.52890089 phases=3 bus1=80553385007258.1.2.3 bus2=80553375007258.1.2.3 r1=0.975 x1=0.47 length=0.0304 units=km normamps=152.0
new line.52890090 phases=3 bus1=80553395007258.1.2.3 bus2=80553385007258.1.2.3 r1=0.975 x1=0.47 length=0.007091 units=km normamps=152.0
new line.52890091 phases=3 bus1=80553445007258.1.2.3 bus2=80553455007258.1.2.3 r1=0.975 x1=0.47 length=0.028793 units=km normamps=152.0
new line.52890092 phases=3 bus1=80553465007258.1.2.3 bus2=80553455007258.1.2.3 r1=0.975 x1=0.47 length=0.009426 units=km normamps=152.0
new line.52890093 phases=3 bus1=80553475007258.1.2.3 bus2=80553465007258.1.2.3 r1=0.975 x1=0.47 length=0.00636 units=km normamps=152.0
new line.52890094 phases=3 bus1=80553485007258.1.2.3 bus2=80553455007258.1.2.3 r1=0.975 x1=0.47 length=0.026545 units=km normamps=152.0
new line.52890095 phases=3 bus1=80553485007258.1.2.3 bus2=80553495007258.1.2.3 r1=0.975 x1=0.47 length=0.005962 units=km normamps=152.0
new line.52890096 phases=3 bus1=80553505007258.1.2.3 bus2=80553495007258.1.2.3 r1=0.975 x1=0.47 length=0.011394 units=km normamps=152.0
new line.52890097 phases=3 bus1=80553485007258.1.2.3 bus2=80552635007258.1.2.3 r1=0.975 x1=0.47 length=0.013908 units=km normamps=152.0
new line.52890098 phases=3 bus1=80553525007258.1.2.3 bus2=80553515007258.1.2.3 r1=0.975 x1=0.47 length=0.036207 units=km normamps=152.0
new line.52890099 phases=3 bus1=80553535007258.1.2.3 bus2=80553525007258.1.2.3 r1=0.975 x1=0.47 length=0.042649 units=km normamps=152.0
new line.52890100 phases=3 bus1=80552475007258.1.2.3 bus2=80553525007258.1.2.3 r1=0.975 x1=0.47 length=0.012564 units=km normamps=152.0
new line.52890101 phases=3 bus1=80553545007258.1.2.3 bus2=80552475007258.1.2.3 r1=0.975 x1=0.47 length=0.021705 units=km normamps=152.0
new line.52890102 phases=3 bus1=80553555007258.1.2.3 bus2=80553545007258.1.2.3 r1=0.975 x1=0.47 length=0.005181 units=km normamps=152.0
new line.52890103 phases=3 bus1=80553585007258.1.2.3 bus2=80553575007258.1.2.3 r1=1.551 x1=0.49 length=0.025564 units=km normamps=114.0
new line.52890104 phases=3 bus1=80553595007258.1.2.3 bus2=80553585007258.1.2.3 r1=1.551 x1=0.49 length=0.016158 units=km normamps=114.0
new line.52890105 phases=3 bus1=80553605007258.1.2.3 bus2=80553585007258.1.2.3 r1=1.551 x1=0.49 length=0.007608 units=km normamps=114.0
new line.52890106 phases=3 bus1=80553615007258.1.2.3 bus2=80553595007258.1.2.3 r1=1.551 x1=0.49 length=0.013643 units=km normamps=114.0
new line.52890107 phases=3 bus1=80553625007258.1.2.3 bus2=80553595007258.1.2.3 r1=1.551 x1=0.49 length=0.006634 units=km normamps=114.0
new line.52890108 phases=3 bus1=80553635007258.1.2.3 bus2=80553615007258.1.2.3 r1=1.551 x1=0.49 length=0.006859 units=km normamps=114.0
new line.52890109 phases=3 bus1=80553635007258.1.2.3 bus2=80553645007258.1.2.3 r1=1.551 x1=0.49 length=0.009647 units=km normamps=114.0
new line.52890110 phases=3 bus1=80553655007258.1.2.3 bus2=80553645007258.1.2.3 r1=1.551 x1=0.49 length=0.007003 units=km normamps=114.0
new line.52890111 phases=3 bus1=80553665007258.1.2.3 bus2=80553635007258.1.2.3 r1=1.551 x1=0.49 length=0.030762 units=km normamps=114.0
new line.52890112 phases=3 bus1=80553665007258.1.2.3 bus2=80553675007258.1.2.3 r1=1.551 x1=0.49 length=0.010071 units=km normamps=114.0
new line.52890113 phases=3 bus1=80553685007258.1.2.3 bus2=80553675007258.1.2.3 r1=1.551 x1=0.49 length=0.007946 units=km normamps=114.0
new line.52890114 phases=3 bus1=80553695007258.1.2.3 bus2=80553665007258.1.2.3 r1=1.551 x1=0.49 length=0.032027 units=km normamps=114.0
new line.52890115 phases=3 bus1=80553705007258.1.2.3 bus2=80553695007258.1.2.3 r1=0.975 x1=0.47 length=0.006192 units=km normamps=152.0
new line.52890116 phases=3 bus1=80553715007258.1.2.3 bus2=80553695007258.1.2.3 r1=0.975 x1=0.47 length=0.030752 units=km normamps=152.0
new line.52890117 phases=3 bus1=80553725007258.1.2.3 bus2=80553715007258.1.2.3 r1=0.975 x1=0.47 length=0.039471 units=km normamps=152.0
new line.52890118 phases=3 bus1=80553725007258.1.2.3 bus2=80553115007258.1.2.3 r1=0.975 x1=0.47 length=0.012313 units=km normamps=152.0
new line.52890119 phases=3 bus1=80553745007258.1.2.3 bus2=80553735007258.1.2.3 r1=1.551 x1=0.49 length=0.048351 units=km normamps=114.0
new line.52890120 phases=3 bus1=80553755007258.1.2.3 bus2=80553745007258.1.2.3 r1=1.551 x1=0.49 length=0.004306 units=km normamps=114.0
new line.52890121 phases=3 bus1=80553765007258.1.2.3 bus2=80553745007258.1.2.3 r1=1.551 x1=0.49 length=0.022333 units=km normamps=114.0
new line.52890122 phases=3 bus1=80553775007258.1.2.3 bus2=80553765007258.1.2.3 r1=1.551 x1=0.49 length=0.00636 units=km normamps=114.0
new line.52890123 phases=3 bus1=80553785007258.1.2.3 bus2=80553765007258.1.2.3 r1=1.551 x1=0.49 length=0.006467 units=km normamps=114.0
new line.52890155 phases=3 bus1=80551515007258.1.2.3 bus2=80551525007258.1.2.3 r1=0.975 x1=0.47 length=0.039325 units=km normamps=152.0
new line.52890156 phases=3 bus1=80551535007258.1.2.3 bus2=80551525007258.1.2.3 r1=0.975 x1=0.47 length=0.007361 units=km normamps=152.0
new line.52890157 phases=3 bus1=80551545007258.1.2.3 bus2=80551515007258.1.2.3 r1=0.975 x1=0.47 length=0.007161 units=km normamps=152.0
new line.52890175 phases=3 bus1=80552105007258.1.2.3 bus2=93596065007258.1.2.3 r1=0.236 x1=0.27 length=0.016614 units=km normamps=456.0
new line.52890176 phases=3 bus1=80552465007258.1.2.3 bus2=80554225007258.1.2.3 r1=0.975 x1=0.47 length=0.008592 units=km normamps=152.0
new line.52890177 phases=3 bus1=80553185007258.1.2.3 bus2=80553195007258.1.2.3 r1=0.975 x1=0.47 length=0.022979 units=km normamps=152.0
new line.52890178 phases=3 bus1=80552115007258.1.2.3 bus2=80552125007258.1.2.3 r1=0.236 x1=0.27 length=0.027168 units=km normamps=456.0
new line.52890179 phases=3 bus1=80552125007258.1.2.3 bus2=80552135007258.1.2.3 r1=0.236 x1=0.27 length=0.02629 units=km normamps=456.0
new line.52890180 phases=3 bus1=80552135007258.1.2.3 bus2=80552145007258.1.2.3 r1=0.486 x1=0.44 length=0.010676 units=km normamps=235.0
new line.52890181 phases=3 bus1=80552145007258.1.2.3 bus2=80552155007258.1.2.3 r1=0.236 x1=0.27 length=0.032017 units=km normamps=456.0
new line.52890182 phases=3 bus1=80552145007258.1.2.3 bus2=80552165007258.1.2.3 r1=0.975 x1=0.47 length=0.012356 units=km normamps=152.0
new line.52890183 phases=3 bus1=80552165007258B.1.2.3 bus2=80552175007258.1.2.3 r1=0.975 x1=0.47 length=0.028786 units=km normamps=152.0
new line.52890184 phases=3 bus1=80552175007258.1.2.3 bus2=80552185007258.1.2.3 r1=0.975 x1=0.47 length=0.030074 units=km normamps=152.0
new line.52890197 phases=3 bus1=80552405007258.1.2.3 bus2=80552395007258.1.2.3 r1=0.975 x1=0.47 length=0.031182 units=km normamps=152.0
new line.52890198 phases=3 bus1=80552435007258.1.2.3 bus2=80552405007258.1.2.3 r1=0.975 x1=0.47 length=0.007905 units=km normamps=152.0
new line.52890199 phases=3 bus1=80552445007258.1.2.3 bus2=80552395007258.1.2.3 r1=0.975 x1=0.47 length=0.011394 units=km normamps=152.0
new line.52890200 phases=3 bus1=80552395007258.1.2.3 bus2=80552145007258.1.2.3 r1=0.732 x1=0.31 length=0.033495 units=km normamps=225.0
new line.52890201 phases=3 bus1=80552185007258.1.2.3 bus2=83096735007258.1.2.3 r1=0.975 x1=0.47 length=0.021512 units=km normamps=152.0
new line.52890202 phases=3 bus1=80552455007258.1.2.3 bus2=80552465007258.1.2.3 r1=0.975 x1=0.47 length=0.019021 units=km normamps=152.0
new line.52890203 phases=3 bus1=80552455007258.1.2.3 bus2=80552475007258.1.2.3 r1=0.975 x1=0.47 length=0.030709 units=km normamps=152.0
new line.52890204 phases=3 bus1=80552155007258.1.2.3 bus2=80552485007258.1.2.3 r1=0.236 x1=0.27 length=0.032027 units=km normamps=456.0
new line.52890205 phases=3 bus1=80552485007258.1.2.3 bus2=80552495007258.1.2.3 r1=0.236 x1=0.27 length=0.024584 units=km normamps=456.0
new line.52890206 phases=3 bus1=80552495007258.1.2.3 bus2=80552515007258.1.2.3 r1=0.486 x1=0.44 length=0.008432 units=km normamps=235.0
new line.52890207 phases=3 bus1=80552515007258.1.2.3 bus2=80552555007258.1.2.3 r1=0.236 x1=0.27 length=0.027533 units=km normamps=456.0
new line.52890208 phases=3 bus1=80552555007258.1.2.3 bus2=80552525007258.1.2.3 r1=0.486 x1=0.44 length=0.013293 units=km normamps=235.0
new line.52890209 phases=3 bus1=80552545007258.1.2.3 bus2=80552555007258.1.2.3 r1=0.975 x1=0.47 length=0.022226 units=km normamps=152.0
new line.52890210 phases=3 bus1=80552555007258.1.2.3 bus2=80552535007258.1.2.3 r1=0.975 x1=0.47 length=0.010428 units=km normamps=152.0
new line.52890211 phases=3 bus1=80552565007258.1.2.3 bus2=80552535007258B.1.2.3 r1=0.975 x1=0.47 length=0.024296 units=km normamps=152.0
new line.52890212 phases=3 bus1=80552575007258.1.2.3 bus2=80552565007258.1.2.3 r1=0.975 x1=0.47 length=0.025869 units=km normamps=152.0
new line.52890213 phases=3 bus1=80552585007258.1.2.3 bus2=80552575007258.1.2.3 r1=0.975 x1=0.47 length=0.008432 units=km normamps=152.0
new line.52890214 phases=3 bus1=80552595007258.1.2.3 bus2=80552585007258.1.2.3 r1=0.975 x1=0.47 length=0.00746 units=km normamps=152.0
new line.52890215 phases=3 bus1=80552605007258.1.2.3 bus2=80552585007258.1.2.3 r1=0.975 x1=0.47 length=0.029777 units=km normamps=152.0
new line.52890216 phases=3 bus1=80552615007258.1.2.3 bus2=80552605007258.1.2.3 r1=0.975 x1=0.47 length=0.012934 units=km normamps=152.0
new line.52890217 phases=3 bus1=80552625007258.1.2.3 bus2=80552615007258.1.2.3 r1=0.975 x1=0.47 length=0.005177 units=km normamps=152.0
new line.52890218 phases=3 bus1=80552635007258.1.2.3 bus2=80552615007258.1.2.3 r1=0.975 x1=0.47 length=0.017141 units=km normamps=152.0
new line.52890219 phases=3 bus1=80552645007258.1.2.3 bus2=80552635007258.1.2.3 r1=0.975 x1=0.47 length=0.007209 units=km normamps=152.0
new line.52890221 phases=3 bus1=80552665007258.1.2.3 bus2=80552525007258.1.2.3 r1=0.236 x1=0.27 length=0.034967 units=km normamps=456.0
new line.52890222 phases=3 bus1=80552665007258.1.2.3 bus2=80552675007258.1.2.3 r1=0.236 x1=0.27 length=0.026547 units=km normamps=456.0
new line.52890224 phases=3 bus1=80552675007258.1.2.3 bus2=80550535007258.1.2.3 r1=0.236 x1=0.27 length=0.047894 units=km normamps=456.0
new line.52890239 phases=3 bus1=80552935007258.1.2.3 bus2=80552925007258B.1.2.3 r1=0.975 x1=0.47 length=0.021496 units=km normamps=152.0
new line.52890241 phases=3 bus1=80552955007258.1.2.3 bus2=80552935007258.1.2.3 r1=0.975 x1=0.47 length=0.037052 units=km normamps=152.0
new line.52890242 phases=3 bus1=80552965007258.1.2.3 bus2=80552955007258.1.2.3 r1=0.975 x1=0.47 length=0.037344 units=km normamps=152.0
new line.52890243 phases=3 bus1=80551525007258.1.2.3 bus2=80552965007258.1.2.3 r1=0.975 x1=0.47 length=0.008406 units=km normamps=152.0
new line.52890246 phases=3 bus1=80552985007258B.1.2.3 bus2=80552995007258.1.2.3 r1=0.975 x1=0.47 length=0.038489 units=km normamps=152.0
new line.52890247 phases=3 bus1=80552505007258.1.2.3 bus2=80552495007258.1.2.3 r1=0.613 x1=0.45 length=0.014406 units=km normamps=203.0
new line.52890248 phases=3 bus1=80552995007258.1.2.3 bus2=88876425007258.1.2.3 r1=0.975 x1=0.47 length=0.026746 units=km normamps=152.0
new line.52890249 phases=3 bus1=80553015007258.1.2.3 bus2=80553005007258.1.2.3 r1=0.975 x1=0.47 length=0.001921 units=km normamps=152.0
new line.52890250 phases=3 bus1=80553125007258.1.2.3 bus2=80553115007258.1.2.3 r1=0.975 x1=0.47 length=0.032024 units=km normamps=152.0
new line.52890251 phases=3 bus1=80553135007258.1.2.3 bus2=80553125007258.1.2.3 r1=0.975 x1=0.47 length=0.021078 units=km normamps=152.0
new line.52890252 phases=3 bus1=80553145007258.1.2.3 bus2=80553135007258.1.2.3 r1=0.975 x1=0.47 length=0.006624 units=km normamps=152.0
new line.52890253 phases=3 bus1=80553155007258.1.2.3 bus2=80553135007258.1.2.3 r1=0.975 x1=0.47 length=0.015464 units=km normamps=152.0
new line.52890254 phases=3 bus1=80553175007258.1.2.3 bus2=80553155007258.1.2.3 r1=0.975 x1=0.47 length=0.011569 units=km normamps=152.0
new line.52890255 phases=3 bus1=80553185007258.1.2.3 bus2=80553175007258.1.2.3 r1=0.975 x1=0.47 length=0.011432 units=km normamps=152.0
new line.52890256 phases=3 bus1=80553785007258.1.2.3 bus2=80553795007258.1.2.3 r1=0.975 x1=0.47 length=0.010676 units=km normamps=152.0
new line.52890257 phases=3 bus1=80553805007258.1.2.3 bus2=80553795007258.1.2.3 r1=0.975 x1=0.47 length=0.007608 units=km normamps=152.0
new line.52890258 phases=3 bus1=80553815007258.1.2.3 bus2=80553785007258.1.2.3 r1=0.975 x1=0.47 length=0.009427 units=km normamps=152.0
new line.52890259 phases=3 bus1=80553825007258.1.2.3 bus2=80553815007258.1.2.3 r1=0.975 x1=0.47 length=0.009701 units=km normamps=152.0
new line.52890260 phases=3 bus1=80553835007258.1.2.3 bus2=80553815007258.1.2.3 r1=0.975 x1=0.47 length=0.006634 units=km normamps=152.0
new line.52890261 phases=3 bus1=80553845007258.1.2.3 bus2=80553825007258.1.2.3 r1=0.975 x1=0.47 length=0.00636 units=km normamps=152.0
new line.52890262 phases=3 bus1=80553855007258.1.2.3 bus2=80553825007258.1.2.3 r1=0.975 x1=0.47 length=0.007444 units=km normamps=152.0
new line.52890263 phases=3 bus1=80553865007258.1.2.3 bus2=80553855007258.1.2.3 r1=0.975 x1=0.47 length=0.021668 units=km normamps=152.0
new line.52890264 phases=3 bus1=80553875007258.1.2.3 bus2=80553855007258.1.2.3 r1=0.975 x1=0.47 length=0.006634 units=km normamps=152.0
new line.52890265 phases=3 bus1=80553885007258.1.2.3 bus2=80553515007258.1.2.3 r1=0.975 x1=0.47 length=0.056077 units=km normamps=152.0
new line.52890266 phases=3 bus1=80553885007258.1.2.3 bus2=80553865007258.1.2.3 r1=0.975 x1=0.47 length=0.026135 units=km normamps=152.0
new line.52890275 phases=3 bus1=80550415007258.1.2.3 bus2=80550405007258.1.2.3 r1=0.236 x1=0.27 length=0.027807 units=km normamps=456.0
new line.52890276 phases=3 bus1=80550425007258.1.2.3 bus2=80550415007258.1.2.3 r1=0.236 x1=0.27 length=0.030762 units=km normamps=456.0
new line.52890277 phases=3 bus1=80550435007258.1.2.3 bus2=80550425007258.1.2.3 r1=0.236 x1=0.27 length=0.031049 units=km normamps=456.0
new line.52890279 phases=3 bus1=80550435007258.1.2.3 bus2=80550455007258.1.2.3 r1=0.236 x1=0.27 length=0.029777 units=km normamps=456.0
new line.52890281 phases=3 bus1=80550475007258.1.2.3 bus2=80550465007258B.1.2.3 r1=0.975 x1=0.47 length=0.024582 units=km normamps=152.0
new line.52890282 phases=3 bus1=80550485007258.1.2.3 bus2=80550475007258.1.2.3 r1=0.975 x1=0.47 length=0.049163 units=km normamps=152.0
new line.52890285 phases=3 bus1=80550525007258.1.2.3 bus2=87477495007258.1.2.3 r1=0.236 x1=0.27 length=0.030251 units=km normamps=456.0
new line.52890289 phases=3 bus1=80550565007258.1.2.3 bus2=80550555007258.1.2.3 r1=0.732 x1=0.31 length=0.041463 units=km normamps=225.0
new line.52890316 phases=3 bus1=80553205007258.1.2.3 bus2=80553185007258.1.2.3 r1=0.975 x1=0.47 length=0.023937 units=km normamps=152.0
new line.52890317 phases=3 bus1=80553215007258.1.2.3 bus2=90947735007258.1.2.3 r1=0.975 x1=0.47 length=0.020995 units=km normamps=152.0
new line.52890318 phases=3 bus1=80553225007258.1.2.3 bus2=80553205007258.1.2.3 r1=0.975 x1=0.47 length=0.003699 units=km normamps=152.0
new line.52890319 phases=3 bus1=80553245007258.1.2.3 bus2=80553215007258.1.2.3 r1=0.975 x1=0.47 length=0.025564 units=km normamps=152.0
new line.52890323 phases=3 bus1=80553255007258.1.2.3 bus2=80553245007258.1.2.3 r1=0.975 x1=0.47 length=0.0156 units=km normamps=152.0
new line.52890324 phases=3 bus1=80553335007258.1.2.3 bus2=80553325007258.1.2.3 r1=0.975 x1=0.47 length=0.023316 units=km normamps=152.0
new line.52890325 phases=3 bus1=80553345007258.1.2.3 bus2=80553325007258.1.2.3 r1=0.975 x1=0.47 length=0.006633 units=km normamps=152.0
new line.52890326 phases=3 bus1=80553355007258.1.2.3 bus2=80553335007258.1.2.3 r1=0.975 x1=0.47 length=0.018855 units=km normamps=152.0
new line.52890327 phases=3 bus1=80553365007258.1.2.3 bus2=80553335007258.1.2.3 r1=0.975 x1=0.47 length=0.00736 units=km normamps=152.0
new line.52890409 phases=3 bus1=80555585007258.1.2.3 bus2=94332275007258.1.2.3 r1=0.236 x1=0.27 length=0.021303 units=km normamps=456.0
new line.52890593 phases=3 bus1=80553195007258.1.2.3 bus2=80560675007258.1.2.3 r1=0.975 x1=0.47 length=0.011285 units=km normamps=152.0
new line.53037414 phases=3 bus1=81753505007258.1.2.3 bus2=96895575007258.1.2.3 r1=0.195 x1=0.4 length=0.00734 units=km normamps=419.0
new line.53037416 phases=3 bus1=81753535007258.1.2.3 bus2=81753545007258.1.2.3 r1=0.236 x1=0.27 length=0.045931 units=km normamps=456.0
new line.53037418 phases=3 bus1=81753545007258.1.2.3 bus2=93364355007258.1.2.3 r1=0.236 x1=0.27 length=0.017676 units=km normamps=456.0
new line.53037419 phases=3 bus1=81753565007258.1.2.3 bus2=81753575007258.1.2.3 r1=0.236 x1=0.27 length=0.058565 units=km normamps=456.0
new line.53037420 phases=3 bus1=81753585007258.1.2.3 bus2=81753515007258B.1.2.3 r1=0.975 x1=0.47 length=0.031746 units=km normamps=152.0
new line.53037421 phases=3 bus1=81753595007258.1.2.3 bus2=81753585007258.1.2.3 r1=0.975 x1=0.47 length=0.031673 units=km normamps=152.0
new line.53037422 phases=3 bus1=81753605007258.1.2.3 bus2=89615665007258.1.2.3 r1=0.975 x1=0.47 length=0.005935 units=km normamps=152.0
new line.53037423 phases=3 bus1=81753625007258.1.2.3 bus2=81753605007258.1.2.3 r1=0.975 x1=0.47 length=0.007913 units=km normamps=152.0
new line.53037424 phases=3 bus1=81753575007258.1.2.3 bus2=93365925007258.1.2.3 r1=0.236 x1=0.27 length=0.03606 units=km normamps=456.0
new line.53037426 phases=3 bus1=81753785007258.1.2.3 bus2=81753775007258.1.2.3 r1=0.613 x1=0.45 length=0.013419 units=km normamps=203.0
new line.53037427 phases=3 bus1=81753775007258.1.2.3 bus2=81753795007258.1.2.3 r1=0.236 x1=0.27 length=0.035257 units=km normamps=456.0
new line.53037428 phases=3 bus1=81753795007258.1.2.3 bus2=81753815007258.1.2.3 r1=0.236 x1=0.27 length=0.030071 units=km normamps=456.0
new line.53037429 phases=3 bus1=81753815007258.1.2.3 bus2=90416545007258.1.2.3 r1=0.236 x1=0.27 length=0.015971 units=km normamps=456.0
new line.53037430 phases=3 bus1=81753815007258B.1.2.3 bus2=81753825007258.1.2.3 r1=0.975 x1=0.47 length=0.013718 units=km normamps=152.0
new line.53037431 phases=3 bus1=81753845007258.1.2.3 bus2=81753825007258.1.2.3 r1=0.975 x1=0.47 length=0.033308 units=km normamps=152.0
new line.53037432 phases=3 bus1=81753855007258.1.2.3 bus2=81753845007258.1.2.3 r1=0.975 x1=0.47 length=0.00736 units=km normamps=152.0
new line.53037433 phases=3 bus1=81753835007258.1.2.3 bus2=81753865007258.1.2.3 r1=0.236 x1=0.27 length=0.044663 units=km normamps=456.0
new line.53037434 phases=3 bus1=81753875007258.1.2.3 bus2=81753865007258.1.2.3 r1=0.245 x1=0.42 length=0.022846 units=km normamps=362.0
new line.53037435 phases=3 bus1=81753865007258.1.2.3 bus2=81753885007258.1.2.3 r1=0.236 x1=0.27 length=0.024582 units=km normamps=456.0
new line.53037436 phases=3 bus1=81753885007258.1.2.3 bus2=80552105007258.1.2.3 r1=0.236 x1=0.27 length=0.026287 units=km normamps=456.0
new line.53037437 phases=3 bus1=80552105007258.1.2.3 bus2=81753895007258.1.2.3 r1=0.236 x1=0.27 length=0.033305 units=km normamps=456.0
new line.53037438 phases=3 bus1=81753895007258.1.2.3 bus2=95408195007258.1.2.3 r1=0.236 x1=0.27 length=0.011121 units=km normamps=456.0
new line.53037439 phases=3 bus1=81753795007258.1.2.3 bus2=81755475007258.1.2.3 r1=0.245 x1=0.42 length=0.007003 units=km normamps=362.0
new line.53037440 phases=3 bus1=81753905007258.1.2.3 bus2=81753945007258.1.2.3 r1=0.236 x1=0.27 length=0.049164 units=km normamps=456.0
new line.53037441 phases=3 bus1=81753945007258.1.2.3 bus2=81753955007258.1.2.3 r1=0.236 x1=0.27 length=0.031269 units=km normamps=456.0
new line.53037442 phases=3 bus1=81754355007258.1.2.3 bus2=81755465007258.1.2.3 r1=0.236 x1=0.27 length=0.027337 units=km normamps=456.0
new line.53037443 phases=3 bus1=81755465007258.1.2.3 bus2=81754385007258.1.2.3 r1=0.236 x1=0.27 length=0.030472 units=km normamps=456.0
new line.53037444 phases=3 bus1=81755465007258.1.2.3 bus2=81754365007258.1.2.3 r1=0.245 x1=0.42 length=0.007028 units=km normamps=362.0
new line.53037448 phases=3 bus1=81754195007258.1.2.3 bus2=81754155007258.1.2.3 r1=1.551 x1=0.49 length=0.029753 units=km normamps=114.0
new line.53037449 phases=3 bus1=81754205007258.1.2.3 bus2=81754195007258.1.2.3 r1=1.551 x1=0.49 length=0.00657 units=km normamps=114.0
new line.53037450 phases=3 bus1=81753955007258.1.2.3 bus2=81754315007258.1.2.3 r1=0.236 x1=0.27 length=0.023406 units=km normamps=456.0
new line.53037451 phases=3 bus1=81754325007258.1.2.3 bus2=81754315007258B.1.2.3 r1=0.236 x1=0.27 length=0.041432 units=km normamps=456.0
new line.53037452 phases=3 bus1=81754335007258.1.2.3 bus2=81754325007258.1.2.3 r1=0.236 x1=0.27 length=0.032727 units=km normamps=456.0
new line.53037453 phases=3 bus1=81754345007258.1.2.3 bus2=81754335007258.1.2.3 r1=0.236 x1=0.27 length=0.026828 units=km normamps=456.0
new line.53037455 phases=3 bus1=81754355007258.1.2.3 bus2=94230545007258.1.2.3 r1=0.236 x1=0.27 length=0.018557 units=km normamps=456.0
new line.53037457 phases=3 bus1=81754395007258.1.2.3 bus2=81754385007258.1.2.3 r1=0.236 x1=0.27 length=0.030457 units=km normamps=456.0
new line.53037462 phases=3 bus1=81754425007258.1.2.3 bus2=81754435007258.1.2.3 r1=0.236 x1=0.27 length=0.009391 units=km normamps=456.0
new line.53037463 phases=3 bus1=81754435007258B.1.2.3 bus2=81754445007258.1.2.3 r1=2.389 x1=0.52 length=0.034418 units=km normamps=90.0
new line.53037464 phases=3 bus1=81754455007258.1.2.3 bus2=81754445007258.1.2.3 r1=2.389 x1=0.52 length=0.015564 units=km normamps=90.0
new line.53037465 phases=3 bus1=81754495007258.1.2.3 bus2=81754425007258.1.2.3 r1=0.236 x1=0.27 length=0.020146 units=km normamps=456.0
new line.53037466 phases=3 bus1=81754495007258.1.2.3 bus2=81754505007258.1.2.3 r1=0.236 x1=0.27 length=0.0429 units=km normamps=456.0
new line.53037467 phases=3 bus1=81754515007258.1.2.3 bus2=81754505007258.1.2.3 r1=0.245 x1=0.42 length=0.008123 units=km normamps=362.0
new line.53037468 phases=3 bus1=81754505007258.1.2.3 bus2=95529355007258.1.2.3 r1=0.236 x1=0.27 length=0.006967 units=km normamps=456.0
new line.53037542 phases=3 bus1=81762515007258.1.2.3 bus2=81762485007258.1.2.3 r1=0.975 x1=0.47 length=0.029035 units=km normamps=152.0
new line.53037544 phases=3 bus1=81762575007258B.1.2.3 bus2=81762585007258.1.2.3 r1=0.975 x1=0.47 length=0.025734 units=km normamps=152.0
new line.53037545 phases=3 bus1=81762585007258.1.2.3 bus2=81763875007258.1.2.3 r1=0.975 x1=0.47 length=0.031952 units=km normamps=152.0
new line.53037546 phases=3 bus1=81763875007258.1.2.3 bus2=81763915007258.1.2.3 r1=0.975 x1=0.47 length=0.026307 units=km normamps=152.0
new line.53037547 phases=3 bus1=81763915007258.1.2.3 bus2=81763925007258.1.2.3 r1=0.975 x1=0.47 length=0.041775 units=km normamps=152.0
new line.53037548 phases=3 bus1=81763945007258.1.2.3 bus2=81763925007258.1.2.3 r1=0.975 x1=0.47 length=0.027091 units=km normamps=152.0
new line.53037549 phases=3 bus1=81763955007258.1.2.3 bus2=81763965007258.1.2.3 r1=0.236 x1=0.27 length=0.033988 units=km normamps=456.0
new line.53037550 phases=3 bus1=81763965007258.1.2.3 bus2=94350945007258.1.2.3 r1=0.236 x1=0.27 length=0.031795 units=km normamps=456.0
new line.53037551 phases=3 bus1=81763975007258.1.2.3 bus2=81758605007258B.1.2.3 r1=0.236 x1=0.27 length=0.031176 units=km normamps=456.0
new line.53037552 phases=3 bus1=81762605007258.1.2.3 bus2=81762615007258.1.2.3 r1=1.551 x1=0.49 length=0.023318 units=km normamps=114.0
new line.53037553 phases=3 bus1=81762615007258.1.2.3 bus2=81762625007258B.1.2.3 r1=1.551 x1=0.49 length=0.031747 units=km normamps=114.0
new line.53037554 phases=3 bus1=81762625007258.1.2.3 bus2=81762635007258.1.2.3 r1=0.236 x1=0.27 length=0.007443 units=km normamps=456.0
new line.53037555 phases=3 bus1=81762635007258.1.2.3 bus2=81762575007258.1.2.3 r1=0.236 x1=0.27 length=0.036538 units=km normamps=456.0
new line.53037557 phases=3 bus1=81762645007258.1.2.3 bus2=81762635007258.1.2.3 r1=0.236 x1=0.27 length=0.0304 units=km normamps=456.0
new line.53037558 phases=3 bus1=81762705007258.1.2.3 bus2=81762605007258.1.2.3 r1=1.551 x1=0.49 length=0.033008 units=km normamps=114.0
new line.53037560 phases=3 bus1=81764005007258.1.2.3 bus2=81762715007258.1.2.3 r1=1.551 x1=0.49 length=0.030923 units=km normamps=114.0
new line.53037561 phases=3 bus1=81764155007258.1.2.3 bus2=81762645007258.1.2.3 r1=0.236 x1=0.27 length=0.031047 units=km normamps=456.0
new line.53037562 phases=3 bus1=81764145007258.1.2.3 bus2=81764155007258.1.2.3 r1=0.236 x1=0.27 length=0.029774 units=km normamps=456.0
new line.53037574 phases=3 bus1=81764215007258.1.2.3 bus2=95751925007258.1.2.3 r1=0.236 x1=0.27 length=0.020696 units=km normamps=456.0
new line.53037575 phases=3 bus1=81764215007258.1.2.3 bus2=81764205007258.1.2.3 r1=0.975 x1=0.47 length=0.030071 units=km normamps=152.0
new line.53037576 phases=3 bus1=81764225007258.1.2.3 bus2=81764215007258.1.2.3 r1=0.236 x1=0.27 length=0.036237 units=km normamps=456.0
new line.53037577 phases=3 bus1=81764235007258.1.2.3 bus2=81764225007258.1.2.3 r1=0.236 x1=0.27 length=0.043679 units=km normamps=456.0
new line.53037578 phases=3 bus1=81764245007258.1.2.3 bus2=81764235007258.1.2.3 r1=0.236 x1=0.27 length=0.03849 units=km normamps=456.0
new line.53037579 phases=3 bus1=81764245007258.1.2.3 bus2=81764255007258.1.2.3 r1=0.975 x1=0.47 length=0.030071 units=km normamps=152.0
new line.53037580 phases=3 bus1=81764265007258.1.2.3 bus2=81764255007258.1.2.3 r1=0.975 x1=0.47 length=0.042693 units=km normamps=152.0
new line.53037581 phases=3 bus1=81764285007258.1.2.3 bus2=81753845007258.1.2.3 r1=0.975 x1=0.47 length=0.022333 units=km normamps=152.0
new line.53037582 phases=3 bus1=81764295007258.1.2.3 bus2=81764285007258.1.2.3 r1=0.975 x1=0.47 length=0.019854 units=km normamps=152.0
new line.53037583 phases=3 bus1=81764325007258.1.2.3 bus2=81764265007258.1.2.3 r1=0.975 x1=0.47 length=0.037562 units=km normamps=152.0
new line.53037584 phases=3 bus1=81764335007258.1.2.3 bus2=81764205007258.1.2.3 r1=0.975 x1=0.47 length=0.007004 units=km normamps=152.0
new line.53037633 phases=3 bus1=81764465007258.1.2.3 bus2=81759265007258.1.2.3 r1=0.195 x1=0.4 length=0.02717 units=km normamps=419.0
new line.53037634 phases=3 bus1=81764495007258.1.2.3 bus2=81764465007258.1.2.3 r1=0.195 x1=0.4 length=0.05211 units=km normamps=419.0
new line.53037635 phases=3 bus1=81764505007258.1.2.3 bus2=81764495007258.1.2.3 r1=0.195 x1=0.4 length=0.033988 units=km normamps=419.0
new line.53037640 phases=3 bus1=81758485007258.1.2.3 bus2=81756325007258.1.2.3 r1=0.195 x1=0.4 length=0.043379 units=km normamps=419.0
new line.53037641 phases=3 bus1=81758495007258.1.2.3 bus2=81758485007258.1.2.3 r1=0.195 x1=0.4 length=0.041435 units=km normamps=419.0
new line.53037642 phases=3 bus1=81758515007258.1.2.3 bus2=81758495007258.1.2.3 r1=0.195 x1=0.4 length=0.040452 units=km normamps=419.0
...

! 3. Chaves Seccionadoras MT
new line.SC_5272389 phases=3 bus1=80552165007258.1.2.3 bus2=80552165007258B.1.2.3 switch=y r1=1e-4 x1=1e-4 length=0.001 units=km
new line.SC_5272391 phases=3 bus1=80552535007258.1.2.3 bus2=80552535007258B.1.2.3 switch=y r1=1e-4 x1=1e-4 length=0.001 units=km
new line.SC_5272392 phases=3 bus1=80550465007258.1.2.3 bus2=80550465007258B.1.2.3 switch=y r1=1e-4 x1=1e-4 length=0.001 units=km
new line.SC_5272395 phases=3 bus1=80552925007258.1.2.3 bus2=80552925007258B.1.2.3 switch=y r1=1e-4 x1=1e-4 length=0.001 units=km
new line.SC_5272396 phases=3 bus1=80552985007258.1.2.3 bus2=80552985007258B.1.2.3 switch=y r1=1e-4 x1=1e-4 length=0.001 units=km
new line.SC_5284358 phases=3 bus1=81754435007258.1.2.3 bus2=81754435007258B.1.2.3 switch=y r1=1e-4 x1=1e-4 length=0.001 units=km
new line.SC_5284360 phases=3 bus1=81753815007258.1.2.3 bus2=81753815007258B.1.2.3 switch=y r1=1e-4 x1=1e-4 length=0.001 units=km
new line.SC_5284362 phases=3 bus1=81753515007258.1.2.3 bus2=81753515007258B.1.2.3 switch=y r1=1e-4 x1=1e-4 length=0.001 units=km
new line.SC_5284383 phases=3 bus1=81759185007258.1.2.3 bus2=81759185007258B.1.2.3 switch=y r1=1e-4 x1=1e-4 length=0.001 units=km
new line.SC_5284384 phases=3 bus1=81759275007258.1.2.3 bus2=81759275007258B.1.2.3 switch=y r1=1e-4 x1=1e-4 length=0.001 units=km
new line.SC_5297559 phases=3 bus1=81753895007258.1.2.3 bus2=81753895007258B.1.2.3 switch=y r1=1e-4 x1=1e-4 length=0.001 units=km
new line.SC_5654007 phases=3 bus1=81754315007258.1.2.3 bus2=81754315007258B.1.2.3 switch=y r1=1e-4 x1=1e-4 length=0.001 units=km
new line.SC_5654270 phases=3 bus1=81758605007258.1.2.3 bus2=81758605007258B.1.2.3 switch=y r1=1e-4 x1=1e-4 length=0.001 units=km
new line.SC_5654452 phases=3 bus1=93369265007258.1.2.3 bus2=93369265007258B.1.2.3 switch=y r1=1e-4 x1=1e-4 length=0.001 units=km
new line.SC_5654459 phases=3 bus1=80551305007258.1.2.3 bus2=80551305007258B.1.2.3 switch=y r1=1e-4 x1=1e-4 length=0.001 units=km
new line.SC_5654477 phases=3 bus1=94332275007258.1.2.3 bus2=94332275007258B.1.2.3 switch=y r1=1e-4 x1=1e-4 length=0.001 units=km
new line.SC_5654479 phases=3 bus1=81753925007258.1.2.3 bus2=81753925007258B.1.2.3 switch=y r1=1e-4 x1=1e-4 length=0.001 units=km
new line.SC_5663767 phases=3 bus1=93594625007258.1.2.3 bus2=93594625007258B.1.2.3 switch=y r1=1e-4 x1=1e-4 length=0.001 units=km
open line.SC_5663767 1
new line.SC_5663768 phases=3 bus1=93594595007258.1.2.3 bus2=93594595007258B.1.2.3 switch=y r1=1e-4 x1=1e-4 length=0.001 units=km
open line.SC_5663768 1
new line.SC_5663885 phases=3 bus1=87497085007258.1.2.3 bus2=87497085007258B.1.2.3 switch=y r1=1e-4 x1=1e-4 length=0.001 units=km
new line.SC_5663886 phases=3 bus1=81753935007258.1.2.3 bus2=81753935007258B.1.2.3 switch=y r1=1e-4 x1=1e-4 length=0.001 units=km
new line.SC_5663908 phases=3 bus1=93596145007258.1.2.3 bus2=93596145007258B.1.2.3 switch=y r1=1e-4 x1=1e-4 length=0.001 units=km
open line.SC_5663908 1
new line.SC_5663909 phases=3 bus1=93596135007258.1.2.3 bus2=93596135007258B.1.2.3 switch=y r1=1e-4 x1=1e-4 length=0.001 units=km
open line.SC_5663909 1
new line.SC_5677860 phases=3 bus1=94065325007258.1.2.3 bus2=94065325007258B.1.2.3 switch=y r1=1e-4 x1=1e-4 length=0.001 units=km
new line.SC_5677861 phases=3 bus1=94065525007258.1.2.3 bus2=94065525007258B.1.2.3 switch=y r1=1e-4 x1=1e-4 length=0.001 units=km
open line.SC_5677861 1
new line.SC_5685217 phases=3 bus1=94243175007258.1.2.3 bus2=94243175007258B.1.2.3 switch=y r1=1e-4 x1=1e-4 length=0.001 units=km
open line.SC_5685217 1
new line.SC_5710876 phases=3 bus1=94791055007258.1.2.3 bus2=94791055007258B.1.2.3 switch=y r1=1e-4 x1=1e-4 length=0.001 units=km
open line.SC_5710876 1
new line.SC_5710878 phases=3 bus1=94791125007258.1.2.3 bus2=94791125007258B.1.2.3 switch=y r1=1e-4 x1=1e-4 length=0.001 units=km
new line.SC_5724841 phases=3 bus1=95408145007258.1.2.3 bus2=95408145007258B.1.2.3 switch=y r1=1e-4 x1=1e-4 length=0.001 units=km
open line.SC_5724841 1
new line.SC_5724842 phases=3 bus1=95408245007258.1.2.3 bus2=95408245007258B.1.2.3 switch=y r1=1e-4 x1=1e-4 length=0.001 units=km
new line.SC_5735956 phases=3 bus1=81762625007258.1.2.3 bus2=81762625007258B.1.2.3 switch=y r1=1e-4 x1=1e-4 length=0.001 units=km
new line.SC_5740406 phases=3 bus1=81758345007258.1.2.3 bus2=81758345007258B.1.2.3 switch=y r1=1e-4 x1=1e-4 length=0.001 units=km
new line.SC_5745585 phases=3 bus1=96367945007258.1.2.3 bus2=96367945007258B.1.2.3 switch=y r1=1e-4 x1=1e-4 length=0.001 units=km
open line.SC_5745585 1
new line.SC_5746383 phases=3 bus1=80475025007258.1.2.3 bus2=80475025007258B.1.2.3 switch=y r1=1e-4 x1=1e-4 length=0.001 units=km
new line.SC_5756275 phases=3 bus1=96895565007258.1.2.3 bus2=96895565007258B.1.2.3 switch=y r1=1e-4 x1=1e-4 length=0.001 units=km
open line.SC_5756275 1
new line.SC_5756276 phases=3 bus1=96895545007258.1.2.3 bus2=96895545007258B.1.2.3 switch=y r1=1e-4 x1=1e-4 length=0.001 units=km
open line.SC_5756276 1
new line.SC_5756279 phases=3 bus1=96895685007258.1.2.3 bus2=96895685007258B.1.2.3 switch=y r1=1e-4 x1=1e-4 length=0.001 units=km
open line.SC_5756279 1
new line.SC_5756280 phases=3 bus1=81758625007258.1.2.3 bus2=81758625007258B.1.2.3 switch=y r1=1e-4 x1=1e-4 length=0.001 units=km
new line.SC_5801512 phases=3 bus1=81762575007258.1.2.3 bus2=81762575007258B.1.2.3 switch=y r1=1e-4 x1=1e-4 length=0.001 units=km
new line.SC_5805627 phases=3 bus1=99101655007258.1.2.3 bus2=99101655007258B.1.2.3 switch=y r1=1e-4 x1=1e-4 length=0.001 units=km
new line.SC_DB0000542 phases=3 bus1=I888888312655007258.1.2.3 bus2=I888888312655007258B.1.2.3 switch=y r1=1e-4 x1=1e-4 length=0.001 units=km
new line.SC_SA0002848 phases=3 bus1=I888888312665007258.1.2.3 bus2=I888888312665007258B.1.2.3 switch=y r1=1e-4 x1=1e-4 length=0.001 units=km
new line.SC_SA0002849 phases=3 bus1=I888888477635007258.1.2.3 bus2=I888888477635007258B.1.2.3 switch=y r1=1e-4 x1=1e-4 length=0.001 units=km
new line.SC_SA0002850 phases=3 bus1=I888888477625007258.1.2.3 bus2=I888888477625007258B.1.2.3 switch=y r1=1e-4 x1=1e-4 length=0.001 units=km

! 5. Transformadores MT/BT de Distribuicao
new transformer.UNTRMT_5817240 phases=3 windings=2 %r=1.55 xhl=3.14 kva=75.0
~ wdg=1 bus=99769375007258.1.2.3 conn=delta kv=13.8
~ wdg=2 bus=99769375817240.1.2.3.0 conn=wye kv=0.38

new transformer.UNTRMT_5272314 phases=3 windings=2 %r=1.39 xhl=3.21 kva=150.0
~ wdg=1 bus=80553145007258.1.2.3 conn=delta kv=13.8
~ wdg=2 bus=80553145272314.1.2.3.0 conn=wye kv=0.38

new transformer.UNTRMT_5272315 phases=3 windings=2 %r=1.39 xhl=3.21 kva=112.0
~ wdg=1 bus=80553255007258.1.2.3 conn=delta kv=13.8
~ wdg=2 bus=80553255272315.1.2.3.0 conn=wye kv=0.38

new transformer.UNTRMT_5272316 phases=3 windings=2 %r=1.46 xhl=3.18 kva=112.0
~ wdg=1 bus=80553345007258.1.2.3 conn=delta kv=13.8
~ wdg=2 bus=80553345272316.1.2.3.0 conn=wye kv=0.38

new transformer.UNTRMT_5272317 phases=3 windings=2 %r=1.46 xhl=3.18 kva=112.0
~ wdg=1 bus=80553705007258.1.2.3 conn=delta kv=13.8
~ wdg=2 bus=80553705272317.1.2.3.0 conn=wye kv=0.38

new transformer.UNTRMT_5272333 phases=3 windings=2 %r=1.55 xhl=3.14 kva=75.0
~ wdg=1 bus=80553755007258.1.2.3 conn=delta kv=13.8
~ wdg=2 bus=80553755272333.1.2.3.0 conn=wye kv=0.38

new transformer.UNTRMT_5272335 phases=3 windings=2 %r=1.3 xhl=4.31 kva=225.0
~ wdg=1 bus=80553845007258.1.2.3 conn=delta kv=13.8
~ wdg=2 bus=80553845272335.1.2.3.0 conn=wye kv=0.38

new transformer.UNTRMT_5272341 phases=3 windings=2 %r=1.55 xhl=3.14 kva=75.0
~ wdg=1 bus=80553395007258.1.2.3 conn=delta kv=13.8
~ wdg=2 bus=80553395272341.1.2.3.0 conn=wye kv=0.38

new transformer.UNTRMT_5272343 phases=3 windings=2 %r=1.25 xhl=4.32 kva=300.0
~ wdg=1 bus=80553545007258.1.2.3 conn=delta kv=13.8
~ wdg=2 bus=80553545272343.1.2.3.0 conn=wye kv=0.38

new transformer.UNTRMT_5272430 phases=3 windings=2 %r=1.46 xhl=3.72 kva=112.0
~ wdg=1 bus=80553625007258.1.2.3 conn=delta kv=13.8
~ wdg=2 bus=80553625272430.1.2.3.0 conn=wye kv=0.38

new transformer.UNTRMT_5272431 phases=3 windings=2 %r=1.46 xhl=3.18 kva=112.0
~ wdg=1 bus=80553615007258.1.2.3 conn=delta kv=13.8
~ wdg=2 bus=80553615272431.1.2.3.0 conn=wye kv=0.38

new transformer.UNTRMT_5272433 phases=3 windings=2 %r=1.46 xhl=3.18 kva=112.0
~ wdg=1 bus=80553225007258.1.2.3 conn=delta kv=13.8
~ wdg=2 bus=80553225272433.1.2.3.0 conn=wye kv=0.38

new transformer.UNTRMT_5272434 phases=3 windings=2 %r=1.55 xhl=3.14 kva=75.0
~ wdg=1 bus=80553365007258.1.2.3 conn=delta kv=13.8
~ wdg=2 bus=80553365272434.1.2.3.0 conn=wye kv=0.38

new transformer.UNTRMT_5272442 phases=3 windings=2 %r=1.3 xhl=4.31 kva=225.0
~ wdg=1 bus=80552595007258.1.2.3 conn=delta kv=13.8
~ wdg=2 bus=80552595272442.1.2.3.0 conn=wye kv=0.38

new transformer.UNTRMT_5272443 phases=3 windings=2 %r=1.55 xhl=3.14 kva=75.0
~ wdg=1 bus=80552625007258.1.2.3 conn=delta kv=13.8
~ wdg=2 bus=80552625272443.1.2.3.0 conn=wye kv=0.38

new transformer.UNTRMT_5272444 phases=3 windings=2 %r=1.46 xhl=3.18 kva=112.0
~ wdg=1 bus=80552645007258.1.2.3 conn=delta kv=13.8
~ wdg=2 bus=80552645272444.1.2.3.0 conn=wye kv=0.38

new transformer.UNTRMT_5272452 phases=3 windings=2 %r=1.46 xhl=3.18 kva=112.0
~ wdg=1 bus=80554225007258.1.2.3 conn=delta kv=13.8
~ wdg=2 bus=80554225272452.1.2.3.0 conn=wye kv=0.38

new transformer.UNTRMT_5272454 phases=3 windings=2 %r=1.55 xhl=3.14 kva=75.0
~ wdg=1 bus=80552515007258.1.2.3 conn=delta kv=13.8
~ wdg=2 bus=80552515272454.1.2.3.0 conn=wye kv=0.38

new transformer.UNTRMT_5272455 phases=3 windings=2 %r=1.46 xhl=3.18 kva=112.0
~ wdg=1 bus=80553805007258.1.2.3 conn=delta kv=13.8
~ wdg=2 bus=80553805272455.1.2.3.0 conn=wye kv=0.38

new transformer.UNTRMT_5272456 phases=3 windings=2 %r=1.39 xhl=3.21 kva=150.0
~ wdg=1 bus=80553835007258.1.2.3 conn=delta kv=13.8
~ wdg=2 bus=80553835272456.1.2.3.0 conn=wye kv=0.38

new transformer.UNTRMT_5272457 phases=3 windings=2 %r=1.39 xhl=3.21 kva=150.0
~ wdg=1 bus=80553875007258.1.2.3 conn=delta kv=13.8
~ wdg=2 bus=80553875272457.1.2.3.0 conn=wye kv=0.38

new transformer.UNTRMT_5272458 phases=3 windings=2 %r=1.39 xhl=3.21 kva=150.0
~ wdg=1 bus=80553865007258.1.2.3 conn=delta kv=13.8
~ wdg=2 bus=80553865272458.1.2.3.0 conn=wye kv=0.38

new transformer.UNTRMT_5272459 phases=3 windings=2 %r=1.68 xhl=3.07 kva=45.0
~ wdg=1 bus=80553685007258.1.2.3 conn=delta kv=13.8
~ wdg=2 bus=80553685272459.1.2.3.0 conn=wye kv=0.38

new transformer.UNTRMT_5272460 phases=3 windings=2 %r=1.39 xhl=3.21 kva=150.0
~ wdg=1 bus=80553655007258.1.2.3 conn=delta kv=13.8
~ wdg=2 bus=80553655272460.1.2.3.0 conn=wye kv=0.38

new transformer.UNTRMT_5272461 phases=3 windings=2 %r=1.46 xhl=3.18 kva=112.0
~ wdg=1 bus=80550535007258.1.2.3 conn=delta kv=13.8
~ wdg=2 bus=80550535272461.1.2.3.0 conn=wye kv=0.38

new transformer.UNTRMT_5272464 phases=3 windings=2 %r=1.46 xhl=3.18 kva=112.0
~ wdg=1 bus=80552965007258.1.2.3 conn=delta kv=13.8
~ wdg=2 bus=80552965272464.1.2.3.0 conn=wye kv=0.38

new transformer.UNTRMT_5272465 phases=3 windings=2 %r=1.3 xhl=4.31 kva=225.0
~ wdg=1 bus=80553015007258.1.2.3 conn=delta kv=13.8
~ wdg=2 bus=80553015272465.1.2.3.0 conn=wye kv=0.38

new transformer.UNTRMT_5272466 phases=3 windings=2 %r=1.46 xhl=3.18 kva=112.0
~ wdg=1 bus=80551545007258.1.2.3 conn=delta kv=13.8
~ wdg=2 bus=80551545272466.1.2.3.0 conn=wye kv=0.38

new transformer.UNTRMT_5272467 phases=3 windings=2 %r=1.68 xhl=3.07 kva=45.0
~ wdg=1 bus=80553475007258.1.2.3 conn=delta kv=13.8
~ wdg=2 bus=80553475272467.1.2.3.0 conn=wye kv=0.38

new transformer.UNTRMT_5272468 phases=3 windings=2 %r=1.39 xhl=3.21 kva=150.0
~ wdg=1 bus=80553505007258.1.2.3 conn=delta kv=13.8
~ wdg=2 bus=80553505272468.1.2.3.0 conn=wye kv=0.38

new transformer.UNTRMT_5272469 phases=3 windings=2 %r=1.39 xhl=3.21 kva=150.0
~ wdg=1 bus=80553605007258.1.2.3 conn=delta kv=13.8
~ wdg=2 bus=80553605272469.1.2.3.0 conn=wye kv=0.38

new transformer.UNTRMT_5272521 phases=3 windings=2 %r=1.55 xhl=3.14 kva=75.0
~ wdg=1 bus=80555585007258.1.2.3 conn=delta kv=13.8
~ wdg=2 bus=80555585272521.1.2.3.0 conn=wye kv=0.38

new transformer.UNTRMT_5272524 phases=3 windings=2 %r=1.68 xhl=3.07 kva=45.0
~ wdg=1 bus=80560675007258.1.2.3 conn=delta kv=13.8
~ wdg=2 bus=80560675272524.1.2.3.0 conn=wye kv=0.38

new transformer.UNTRMT_5284316 phases=3 windings=2 %r=1.39 xhl=3.21 kva=150.0
~ wdg=1 bus=81754515007258.1.2.3 conn=delta kv=13.8
~ wdg=2 bus=81754515284316.1.2.3.0 conn=wye kv=0.38

new transformer.UNTRMT_5284318 phases=3 windings=2 %r=1.3 xhl=4.31 kva=225.0
~ wdg=1 bus=81754205007258.1.2.3 conn=delta kv=13.8
~ wdg=2 bus=81754205284318.1.2.3.0 conn=wye kv=0.38

new transformer.UNTRMT_5284326 phases=3 windings=2 %r=1.46 xhl=3.18 kva=112.0
~ wdg=1 bus=81753555007258.1.2.3 conn=delta kv=13.8
~ wdg=2 bus=81753555284326.1.2.3.0 conn=wye kv=0.38

new transformer.UNTRMT_5284344 phases=3 windings=2 %r=1.39 xhl=3.21 kva=150.0
~ wdg=1 bus=81767425007258.1.2.3 conn=delta kv=13.8
~ wdg=2 bus=81767425284344.1.2.3.0 conn=wye kv=0.38

new transformer.UNTRMT_5284345 phases=3 windings=2 %r=1.39 xhl=3.21 kva=150.0
~ wdg=1 bus=81766435007258.1.2.3 conn=delta kv=13.8
~ wdg=2 bus=81766435284345.1.2.3.0 conn=wye kv=0.38

new transformer.UNTRMT_5284351 phases=3 windings=2 %r=1.46 xhl=3.18 kva=112.0
~ wdg=1 bus=81763945007258.1.2.3 conn=delta kv=13.8
~ wdg=2 bus=81763945284351.1.2.3.0 conn=wye kv=0.38

new transformer.UNTRMT_5284420 phases=3 windings=2 %r=1.46 xhl=3.18 kva=112.0
~ wdg=1 bus=81754255007258.1.2.3 conn=delta kv=13.8
~ wdg=2 bus=81754255284420.1.2.3.0 conn=wye kv=0.38

new transformer.UNTRMT_5284421 phases=3 windings=2 %r=1.68 xhl=3.07 kva=45.0
~ wdg=1 bus=81754365007258.1.2.3 conn=delta kv=13.8
~ wdg=2 bus=81754365284421.1.2.3.0 conn=wye kv=0.38

new transformer.UNTRMT_5284422 phases=3 windings=2 %r=1.46 xhl=3.18 kva=112.0
~ wdg=1 bus=81754135007258.1.2.3 conn=delta kv=13.8
~ wdg=2 bus=81754135284422.1.2.3.0 conn=wye kv=0.38

new transformer.UNTRMT_5284423 phases=3 windings=2 %r=1.78 xhl=3.01 kva=30.0
~ wdg=1 bus=81755475007258.1.2.3 conn=delta kv=13.8
~ wdg=2 bus=81755475284423.1.2.3.0 conn=wye kv=0.38

new transformer.UNTRMT_5284424 phases=3 windings=2 %r=1.55 xhl=3.14 kva=75.0
~ wdg=1 bus=81753855007258.1.2.3 conn=delta kv=13.8
~ wdg=2 bus=81753855284424.1.2.3.0 conn=wye kv=0.38

new transformer.UNTRMT_5284425 phases=3 windings=2 %r=1.46 xhl=3.18 kva=112.0
~ wdg=1 bus=81753885007258.1.2.3 conn=delta kv=13.8
~ wdg=2 bus=81753885284425.1.2.3.0 conn=wye kv=0.38

new transformer.UNTRMT_5284427 phases=3 windings=2 %r=1.68 xhl=3.07 kva=45.0
~ wdg=1 bus=81753955007258.1.2.3 conn=delta kv=13.8
~ wdg=2 bus=81753955284427.1.2.3.0 conn=wye kv=0.38

new transformer.UNTRMT_5284431 phases=3 windings=2 %r=1.46 xhl=3.18 kva=112.0
~ wdg=1 bus=81753585007258.1.2.3 conn=delta kv=13.8
~ wdg=2 bus=81753585284431.1.2.3.0 conn=wye kv=0.38

new transformer.UNTRMT_5284432 phases=3 windings=2 %r=1.55 xhl=3.14 kva=75.0
~ wdg=1 bus=81753625007258.1.2.3 conn=delta kv=13.8
~ wdg=2 bus=81753625284432.1.2.3.0 conn=wye kv=0.38

new transformer.UNTRMT_5284441 phases=3 windings=2 %r=1.55 xhl=3.14 kva=75.0
~ wdg=1 bus=81758725007258.1.2.3 conn=delta kv=13.8
~ wdg=2 bus=81758725284441.1.2.3.0 conn=wye kv=0.38

new transformer.UNTRMT_5284442 phases=3 windings=2 %r=1.46 xhl=3.18 kva=112.0
~ wdg=1 bus=81758945007258.1.2.3 conn=delta kv=13.8
~ wdg=2 bus=81758945284442.1.2.3.0 conn=wye kv=0.38

new transformer.UNTRMT_5284443 phases=3 windings=2 %r=1.55 xhl=3.14 kva=75.0
~ wdg=1 bus=81758975007258.1.2.3 conn=delta kv=13.8
~ wdg=2 bus=81758975284443.1.2.3.0 conn=wye kv=0.38

new transformer.UNTRMT_5284444 phases=3 windings=2 %r=1.46 xhl=3.18 kva=112.0
~ wdg=1 bus=81759045007258.1.2.3 conn=delta kv=13.8
~ wdg=2 bus=81759045284444.1.2.3.0 conn=wye kv=0.38

new transformer.UNTRMT_5284445 phases=3 windings=2 %r=1.46 xhl=3.18 kva=112.0
~ wdg=1 bus=81759155007258.1.2.3 conn=delta kv=13.8
~ wdg=2 bus=81759155284445.1.2.3.0 conn=wye kv=0.38

new transformer.UNTRMT_5284446 phases=3 windings=2 %r=1.46 xhl=3.18 kva=112.0
~ wdg=1 bus=81758355007258.1.2.3 conn=delta kv=13.8
~ wdg=2 bus=81758355284446.1.2.3.0 conn=wye kv=0.38

new transformer.UNTRMT_5284447 phases=3 windings=2 %r=1.55 xhl=3.14 kva=75.0
~ wdg=1 bus=81758655007258.1.2.3 conn=delta kv=13.8
~ wdg=2 bus=81758655284447.1.2.3.0 conn=wye kv=0.38

new transformer.UNTRMT_5284463 phases=3 windings=2 %r=1.55 xhl=3.14 kva=75.0
~ wdg=1 bus=81762375007258.1.2.3 conn=delta kv=13.8
~ wdg=2 bus=81762375284463.1.2.3.0 conn=wye kv=0.38

new transformer.UNTRMT_5284465 phases=3 windings=2 %r=1.46 xhl=3.18 kva=112.0
~ wdg=1 bus=81758485007258.1.2.3 conn=delta kv=13.8
~ wdg=2 bus=81758485284465.1.2.3.0 conn=wye kv=0.38

new transformer.UNTRMT_5284466 phases=3 windings=2 %r=1.46 xhl=3.18 kva=112.0
~ wdg=1 bus=81758585007258.1.2.3 conn=delta kv=13.8
~ wdg=2 bus=81758585284466.1.2.3.0 conn=wye kv=0.38

new transformer.UNTRMT_5284467 phases=3 windings=2 %r=1.46 xhl=3.18 kva=112.0
~ wdg=1 bus=81759265007258.1.2.3 conn=delta kv=13.8
~ wdg=2 bus=81759265284467.1.2.3.0 conn=wye kv=0.38

new transformer.UNTRMT_5284468 phases=3 windings=2 %r=1.55 xhl=3.14 kva=75.0
~ wdg=1 bus=81759335007258.1.2.3 conn=delta kv=13.8
~ wdg=2 bus=81759335284468.1.2.3.0 conn=wye kv=0.38

new transformer.UNTRMT_5284472 phases=3 windings=2 %r=1.68 xhl=3.07 kva=45.0
~ wdg=1 bus=81760345007258.1.2.3 conn=delta kv=13.8
~ wdg=2 bus=81760345284472.1.2.3.0 conn=wye kv=0.38

new transformer.UNTRMT_5284473 phases=3 windings=2 %r=1.55 xhl=3.14 kva=75.0
~ wdg=1 bus=81760465007258.1.2.3 conn=delta kv=13.8
~ wdg=2 bus=81760465284473.1.2.3.0 conn=wye kv=0.38

new transformer.UNTRMT_5284475 phases=3 windings=2 %r=1.46 xhl=3.18 kva=112.0
~ wdg=1 bus=81763175007258.1.2.3 conn=delta kv=13.8
~ wdg=2 bus=81763175284475.1.2.3.0 conn=wye kv=0.38

new transformer.UNTRMT_5284488 phases=3 windings=2 %r=1.55 xhl=3.14 kva=75.0
~ wdg=1 bus=81764325007258.1.2.3 conn=delta kv=13.8
~ wdg=2 bus=81764325284488.1.2.3.0 conn=wye kv=0.38

new transformer.UNTRMT_5284489 phases=3 windings=2 %r=1.55 xhl=3.14 kva=75.0
~ wdg=1 bus=81766155007258.1.2.3 conn=delta kv=13.8
~ wdg=2 bus=81766155284489.1.2.3.0 conn=wye kv=0.38

new transformer.UNTRMT_5284503 phases=3 windings=2 %r=1.46 xhl=3.18 kva=112.0
~ wdg=1 bus=81762615007258.1.2.3 conn=delta kv=13.8
~ wdg=2 bus=81762615284503.1.2.3.0 conn=wye kv=0.38

new transformer.UNTRMT_5284504 phases=3 windings=2 %r=1.46 xhl=3.18 kva=112.0
~ wdg=1 bus=81764005007258.1.2.3 conn=delta kv=13.8
~ wdg=2 bus=81764005284504.1.2.3.0 conn=wye kv=0.38

new transformer.UNTRMT_5284505 phases=3 windings=2 %r=1.46 xhl=3.18 kva=112.0
~ wdg=1 bus=81764155007258.1.2.3 conn=delta kv=13.8
~ wdg=2 bus=81764155284505.1.2.3.0 conn=wye kv=0.38

new transformer.UNTRMT_5284510 phases=3 windings=2 %r=1.55 xhl=3.14 kva=75.0
~ wdg=1 bus=81766395007258.1.2.3 conn=delta kv=13.8
~ wdg=2 bus=81766395284510.1.2.3.0 conn=wye kv=0.38

new transformer.UNTRMT_5299152 phases=3 windings=2 %r=1.3 xhl=4.31 kva=225.0
~ wdg=1 bus=83096795007258.1.2.3 conn=delta kv=13.8
~ wdg=2 bus=83096795299152.1.2.3.0 conn=wye kv=0.38

new transformer.UNTRMT_5328521 phases=3 windings=2 %r=1.39 xhl=3.21 kva=150.0
~ wdg=1 bus=84851475007258.1.2.3 conn=delta kv=13.8
~ wdg=2 bus=84851475328521.1.2.3.0 conn=wye kv=0.38

new transformer.UNTRMT_5333794 phases=3 windings=2 %r=1.46 xhl=3.18 kva=112.0
~ wdg=1 bus=85159525007258.1.2.3 conn=delta kv=13.8
~ wdg=2 bus=85159525333794.1.2.3.0 conn=wye kv=0.38

new transformer.UNTRMT_5448067 phases=3 windings=2 %r=1.46 xhl=3.18 kva=112.0
~ wdg=1 bus=87072655007258.1.2.3 conn=delta kv=13.8
~ wdg=2 bus=87072655448067.1.2.3.0 conn=wye kv=0.38

new transformer.UNTRMT_5454560 phases=3 windings=2 %r=1.39 xhl=3.21 kva=150.0
~ wdg=1 bus=87291945007258.1.2.3 conn=delta kv=13.8
~ wdg=2 bus=87291945454560.1.2.3.0 conn=wye kv=0.38

new transformer.UNTRMT_5517642 phases=3 windings=2 %r=1.39 xhl=3.21 kva=150.0
~ wdg=1 bus=88876435007258.1.2.3 conn=delta kv=13.8
~ wdg=2 bus=88876435517642.1.2.3.0 conn=wye kv=0.38

new transformer.UNTRMT_5529510 phases=3 windings=2 %r=1.25 xhl=4.32 kva=300.0
~ wdg=1 bus=89481745007258.1.2.3 conn=delta kv=13.8
~ wdg=2 bus=89481745529510.1.2.3.0 conn=wye kv=0.38

new transformer.UNTRMT_5533734 phases=3 windings=2 %r=1.39 xhl=3.21 kva=150.0
~ wdg=1 bus=89615565007258.1.2.3 conn=delta kv=13.8
~ wdg=2 bus=89615565533734.1.2.3.0 conn=wye kv=0.38

new transformer.UNTRMT_5534673 phases=3 windings=2 %r=1.46 xhl=3.18 kva=112.0
~ wdg=1 bus=89651875007258.1.2.3 conn=delta kv=13.8
~ wdg=2 bus=89651875534673.1.2.3.0 conn=wye kv=0.38

new transformer.UNTRMT_5552310 phases=3 windings=2 %r=1.55 xhl=3.14 kva=75.0
~ wdg=1 bus=90200865007258.1.2.3 conn=delta kv=13.8
~ wdg=2 bus=90200865552310.1.2.3.0 conn=wye kv=0.38

new transformer.UNTRMT_5561183 phases=3 windings=2 %r=1.15 xhl=5.89 kva=112.0
~ wdg=1 bus=90429105007258.1.2.3 conn=delta kv=13.8
~ wdg=2 bus=90429105561183.1.2.3.0 conn=wye kv=0.38

new transformer.UNTRMT_5574740 phases=3 windings=2 %r=1.3 xhl=4.31 kva=225.0
~ wdg=1 bus=81753615007258.1.2.3 conn=delta kv=13.8
~ wdg=2 bus=81753615574740.1.2.3.0 conn=wye kv=0.38

new transformer.UNTRMT_5578117 phases=3 windings=2 %r=1.55 xhl=3.14 kva=75.0
~ wdg=1 bus=90947735007258.1.2.3 conn=delta kv=13.8
~ wdg=2 bus=90947735578117.1.2.3.0 conn=wye kv=0.38

new transformer.UNTRMT_5606526 phases=3 windings=2 %r=1.39 xhl=3.21 kva=150.0
~ wdg=1 bus=80552185007258.1.2.3 conn=delta kv=13.8
~ wdg=2 bus=80552185606526.1.2.3.0 conn=wye kv=0.38

new transformer.UNTRMT_5627048 phases=3 windings=2 %r=1.46 xhl=3.18 kva=112.0
~ wdg=1 bus=92444225007258.1.2.3 conn=delta kv=13.8
~ wdg=2 bus=92444225627048.1.2.3.0 conn=wye kv=0.38

new transformer.UNTRMT_5755164 phases=3 windings=2 %r=1.55 xhl=3.14 kva=75.0
~ wdg=1 bus=80552715007258.1.2.3 conn=delta kv=13.8
~ wdg=2 bus=80552715755164.1.2.3.0 conn=wye kv=0.38

new transformer.UNTRMT_5801509 phases=3 windings=2 %r=1.55 xhl=3.14 kva=75.0
~ wdg=1 bus=81763875007258.1.2.3 conn=delta kv=13.8
~ wdg=2 bus=81763875801509.1.2.3.0 conn=wye kv=0.38

! 6. Linhas de Baixa Tensao (BT)
new line.52890705 phases=3 bus1=80553205578117.1.2.3.0 bus2=80553185578117.1.2.3.0 r1=0.975 x1=0.47 length=0.023937 units=km normamps=152.0
new line.52890718 phases=3 bus1=80553375272431.1.2.3.0 bus2=80553445272431.1.2.3.0 r1=0.613 x1=0.45 length=0.032027 units=km normamps=203.0
new line.52890720 phases=3 bus1=80553455272431.1.2.3.0 bus2=80553485272431.1.2.3.0 r1=0.975 x1=0.47 length=0.023477 units=km normamps=152.0
new line.52890730 phases=3 bus1=80553725272431.1.2.3.0 bus2=80553715272431.1.2.3.0 r1=0.613 x1=0.45 length=0.039471 units=km normamps=203.0
new line.52890877 phases=3 bus1=80552455606526.1.2.3.0 bus2=80552475606526.1.2.3.0 r1=0.975 x1=0.47 length=0.027642 units=km normamps=152.0
new line.52890884 phases=3 bus1=80552605272454.1.2.3.0 bus2=80552585272454.1.2.3.0 r1=0.975 x1=0.47 length=0.029777 units=km normamps=152.0
new line.52890887 phases=3 bus1=80552525272454.1.2.3.0 bus2=80552665272454.1.2.3.0 r1=0.506 x1=0.1 length=0.034974 units=km normamps=157.0
new line.52890889 phases=3 bus1=80553485272454.1.2.3.0 bus2=80552635272454.1.2.3.0 r1=0.975 x1=0.47 length=0.010841 units=km normamps=152.0
new line.52890891 phases=3 bus1=80553085272458.1.2.3.0 bus2=80553065272458.1.2.3.0 r1=0.975 x1=0.47 length=0.034358 units=km normamps=152.0
new line.52890899 phases=3 bus1=80553525272458.1.2.3.0 bus2=80553515272458.1.2.3.0 r1=0.975 x1=0.47 length=0.036207 units=km normamps=152.0
new line.52890906 phases=3 bus1=80553815272458.1.2.3.0 bus2=80553785272458.1.2.3.0 r1=0.506 x1=0.1 length=0.009427 units=km normamps=157.0
new line.52890911 phases=3 bus1=80553885272458.1.2.3.0 bus2=80553865272458.1.2.3.0 r1=0.613 x1=0.45 length=0.026135 units=km normamps=203.0
new line.52890912 phases=3 bus1=80551315272461.1.2.3.0 bus2=80551325272461.1.2.3.0 r1=0.975 x1=0.47 length=0.035259 units=km normamps=152.0
new line.52890918 phases=3 bus1=80552665272461.1.2.3.0 bus2=80552675272461.1.2.3.0 r1=0.506 x1=0.1 length=0.023479 units=km normamps=157.0
new line.52890919 phases=3 bus1=80552675272461.1.2.3.0 bus2=80552695272461.1.2.3.0 r1=0.506 x1=0.1 length=0.018799 units=km normamps=157.0
new line.52890922 phases=3 bus1=80552715272461.1.2.3.0 bus2=80552725272461.1.2.3.0 r1=0.506 x1=0.1 length=0.031049 units=km normamps=157.0
new line.52890997 phases=1 bus1=80551565272464.1.0 bus2=80551555272464.1.0 r1=0.975 x1=0.47 length=0.009669 units=km normamps=152.0
new line.52891000 phases=3 bus1=80551585272464.1.2.3.0 bus2=80551575272464.1.2.3.0 r1=0.975 x1=0.47 length=0.048774 units=km normamps=152.0
new line.52891003 phases=3 bus1=80552915272464.1.2.3.0 bus2=80552905272464.1.2.3.0 r1=0.613 x1=0.45 length=0.037221 units=km normamps=203.0
new line.52891004 phases=3 bus1=80552935272464.1.2.3.0 bus2=80552925272464.1.2.3.0 r1=0.975 x1=0.47 length=0.021496 units=km normamps=152.0
new line.52891006 phases=3 bus1=80552955272464.1.2.3.0 bus2=80552935272464.1.2.3.0 r1=0.613 x1=0.45 length=0.037052 units=km normamps=203.0
new line.52891008 phases=3 bus1=80551525272464.1.2.3.0 bus2=80552965272464.1.2.3.0 r1=0.613 x1=0.45 length=0.008406 units=km normamps=203.0
new line.53037969 phases=3 bus1=81762565284445.1.2.3.0 bus2=81764165284445.1.2.3.0 r1=0.975 x1=0.47 length=0.039932 units=km normamps=152.0
new line.53037970 phases=3 bus1=81764165284445.1.2.3.0 bus2=81764175284445.1.2.3.0 r1=0.975 x1=0.47 length=0.032738 units=km normamps=152.0
new line.53037973 phases=3 bus1=81759135284445.1.2.3.0 bus2=81759145284445.1.2.3.0 r1=0.613 x1=0.45 length=0.013026 units=km normamps=203.0
new line.53037978 phases=3 bus1=81763935284445.1.2.3.0 bus2=81766115284445.1.2.3.0 r1=0.975 x1=0.47 length=0.030585 units=km normamps=152.0
new line.53037980 phases=3 bus1=81763805284446.1.2.3.0 bus2=81763795284446.1.2.3.0 r1=0.975 x1=0.47 length=0.012772 units=km normamps=152.0
new line.53037984 phases=3 bus1=81763865284446.1.2.3.0 bus2=81763825284446.1.2.3.0 r1=0.975 x1=0.47 length=0.016297 units=km normamps=152.0
new line.53038174 phases=3 bus1=81754185272458.1.2.3.0 bus2=81754175272458.1.2.3.0 r1=0.991 x1=0.1 length=0.041335 units=km normamps=100.0
new line.53038177 phases=3 bus1=81754225284420.1.2.3.0 bus2=81754215284420.1.2.3.0 r1=0.975 x1=0.47 length=0.034936 units=km normamps=152.0
new line.53038180 phases=3 bus1=81754255284420.1.2.3.0 bus2=81754245284420.1.2.3.0 r1=0.613 x1=0.45 length=0.019823 units=km normamps=203.0
new line.53038185 phases=3 bus1=81754295284420.1.2.3.0 bus2=81754305284420.1.2.3.0 r1=0.975 x1=0.47 length=0.030289 units=km normamps=152.0
new line.53038194 phases=3 bus1=81754465272458.1.2.3.0 bus2=81754285272458.1.2.3.0 r1=0.991 x1=0.1 length=0.021163 units=km normamps=100.0
new line.53038195 phases=3 bus1=81754475272458.1.2.3.0 bus2=81754465272458.1.2.3.0 r1=0.991 x1=0.1 length=0.015991 units=km normamps=100.0
new line.53038205 phases=3 bus1=81754075284422.1.2.3.0 bus2=81754055284422.1.2.3.0 r1=0.975 x1=0.47 length=0.032818 units=km normamps=152.0
new line.53038206 phases=3 bus1=81754085284422.1.2.3.0 bus2=81754075284422.1.2.3.0 r1=0.975 x1=0.47 length=0.030913 units=km normamps=152.0
new line.53038214 phases=3 bus1=81754165284422.1.2.3.0 bus2=81754155284422.1.2.3.0 r1=0.613 x1=0.45 length=0.036942 units=km normamps=203.0
new line.53038217 phases=3 bus1=81753795284425.1.2.3.0 bus2=8175380.1.2.3.0 r1=1.551 x1=0.49 length=0.012508 units=km normamps=114.0
new line.53038239 phases=3 bus1=81753945284427.1.2.3.0 bus2=81753955284427.1.2.3.0 r1=2.389 x1=0.52 length=0.028201 units=km normamps=90.0
new line.53038306 phases=3 bus1=81753345284431.1.2.3.0 bus2=81753335284431.1.2.3.0 r1=0.975 x1=0.47 length=0.029422 units=km normamps=152.0
new line.53038310 phases=3 bus1=81753385284431.1.2.3.0 bus2=81753375284431.1.2.3.0 r1=0.975 x1=0.47 length=0.030146 units=km normamps=152.0
new line.53038321 phases=3 bus1=80551435284431.1.2.3.0 bus2=80551445284431.1.2.3.0 r1=0.975 x1=0.47 length=0.03598 units=km normamps=152.0
new line.53038322 phases=3 bus1=80551445284431.1.2.3.0 bus2=80551455284431.1.2.3.0 r1=0.975 x1=0.47 length=0.040371 units=km normamps=152.0
new line.53038344 phases=3 bus1=81753425284431.1.2.3.0 bus2=80551475284431.1.2.3.0 r1=0.975 x1=0.47 length=0.023403 units=km normamps=152.0
new line.53038434 phases=3 bus1=80555065284465.1.2.3.0 bus2=93485625284465.1.2.3.0 r1=0.991 x1=0.1 length=0.008427 units=km normamps=100.0
new line.53038498 phases=3 bus1=81758995284443.1.2.3.0 bus2=81758985284443.1.2.3.0 r1=0.613 x1=0.45 length=0.030997 units=km normamps=203.0
new line.53038501 phases=3 bus1=81759025284443.1.2.3.0 bus2=81759095284443.1.2.3.0 r1=0.613 x1=0.45 length=0.009089 units=km normamps=203.0
new line.53038502 phases=3 bus1=81759095284443.1.2.3.0 bus2=81759085284443.1.2.3.0 r1=0.613 x1=0.45 length=0.043796 units=km normamps=203.0
new line.53038511 phases=3 bus1=81758365284446.1.2.3.0 bus2=81758375284446.1.2.3.0 r1=0.975 x1=0.47 length=0.029931 units=km normamps=152.0
new line.53038518 phases=3 bus1=81758855284446.1.2.3.0 bus2=81758805284446.1.2.3.0 r1=0.975 x1=0.47 length=0.026547 units=km normamps=152.0
new line.53038520 phases=3 bus1=81758885284446.1.2.3.0 bus2=81758865284446.1.2.3.0 r1=0.975 x1=0.47 length=0.04116 units=km normamps=152.0
new line.53038521 phases=3 bus1=81758895284446.1.2.3.0 bus2=81758885284446.1.2.3.0 r1=0.975 x1=0.47 length=0.026841 units=km normamps=152.0
new line.53038525 phases=3 bus1=81758645284447.1.2.3.0 bus2=81758655284447.1.2.3.0 r1=0.613 x1=0.45 length=0.020364 units=km normamps=203.0
new line.53038721 phases=3 bus1=81762375284463.1.2.3.0 bus2=81762385284463.1.2.3.0 r1=0.613 x1=0.45 length=0.042693 units=km normamps=203.0
new line.53038735 phases=3 bus1=81763205284475.1.2.3.0 bus2=81764515284475.1.2.3.0 r1=0.975 x1=0.47 length=0.024352 units=km normamps=152.0
new line.53038780 phases=3 bus1=81762465284473.1.2.3.0 bus2=81762475284473.1.2.3.0 r1=0.991 x1=0.1 length=0.034598 units=km normamps=100.0
new line.53038804 phases=3 bus1=81764105284465.1.2.3.0 bus2=81764115284465.1.2.3.0 r1=0.975 x1=0.47 length=0.024306 units=km normamps=152.0
new line.53038806 phases=3 bus1=81758455284465.1.2.3.0 bus2=81758465284465.1.2.3.0 r1=0.975 x1=0.47 length=0.019007 units=km normamps=152.0
new line.53038810 phases=3 bus1=81758495284465.1.2.3.0 bus2=81758485284465.1.2.3.0 r1=0.613 x1=0.45 length=0.041435 units=km normamps=203.0
new line.53038833 phases=3 bus1=81764535284467.1.2.3.0 bus2=81764545284467.1.2.3.0 r1=0.975 x1=0.47 length=0.044555 units=km normamps=152.0
new line.53038836 phases=3 bus1=81759225284467.1.2.3.0 bus2=81759195284467.1.2.3.0 r1=0.613 x1=0.45 length=0.042161 units=km normamps=203.0
new line.53038837 phases=3 bus1=81759245284467.1.2.3.0 bus2=81759225284467.1.2.3.0 r1=0.613 x1=0.45 length=0.023937 units=km normamps=203.0
new line.53038838 phases=3 bus1=81759235284467.1.2.3.0 bus2=81759245284467.1.2.3.0 r1=0.613 x1=0.45 length=0.013898 units=km normamps=203.0
new line.53038839 phases=3 bus1=81759245284467.1.2.3.0 bus2=81759255284467.1.2.3.0 r1=0.975 x1=0.47 length=0.012648 units=km normamps=152.0
new line.53038858 phases=3 bus1=81759355284468.1.2.3.0 bus2=81759365284468.1.2.3.0 r1=0.991 x1=0.1 length=0.02054 units=km normamps=100.0
new line.53038859 phases=3 bus1=81759375284468.1.2.3.0 bus2=81759355284468.1.2.3.0 r1=0.991 x1=0.1 length=0.016864 units=km normamps=100.0
new line.53038868 phases=3 bus1=81760225284468.1.2.3.0 bus2=81760215284468.1.2.3.0 r1=0.991 x1=0.1 length=0.029654 units=km normamps=100.0
new line.53038871 phases=3 bus1=81760255284468.1.2.3.0 bus2=81760235284468.1.2.3.0 r1=0.991 x1=0.1 length=0.011394 units=km normamps=100.0
new line.53038910 phases=3 bus1=81760345284472.1.2.3.0 bus2=81760355284472.1.2.3.0 r1=0.975 x1=0.47 length=0.060503 units=km normamps=152.0
new line.53038911 phases=3 bus1=81341775284473.1.2.3.0 bus2=81762095284473.1.2.3.0 r1=0.975 x1=0.47 length=0.014889 units=km normamps=152.0
new line.53038912 phases=3 bus1=81762095284473.1.2.3.0 bus2=81760075284473.1.2.3.0 r1=0.975 x1=0.47 length=0.013452 units=km normamps=152.0
new line.53038915 phases=3 bus1=81760425284473.1.2.3.0 bus2=81760415284473.1.2.3.0 r1=0.975 x1=0.47 length=0.019568 units=km normamps=152.0
new line.53038918 phases=3 bus1=81760455284473.1.2.3.0 bus2=81760445284473.1.2.3.0 r1=0.975 x1=0.47 length=0.016168 units=km normamps=152.0
new line.53038932 phases=3 bus1=81764515284475.1.2.3.0 bus2=81764505284475.1.2.3.0 r1=0.506 x1=0.1 length=0.022844 units=km normamps=157.0
new line.53038935 phases=3 bus1=81763185284475.1.2.3.0 bus2=93688235284475.1.2.3.0 r1=0.506 x1=0.1 length=0.010669 units=km normamps=157.0
...